Circuit: * F:\Documents\GitHub\Eurorack-Modular-Synth\Modules\VCO\Simulations\CV_in.asc

Number of points per decade reduced from 10000 to 7726.
WARNING: Less than two connections to node NC_01.  This node is used by V3.
WARNING: Less than two connections to node NC_02.  This node is used by R4.
Direct Newton iteration failed to find .op point.  (Use ".option noopiter" to skip.)
Starting Gmin stepping
Gmin = 10
vernier = 0.5
vernier = 0.25
vernier = 0.125
Gmin = 5.5165
vernier = 0.0625
vernier = 0.03125
vernier = 0.015625
vernier = 0.0078125
Gmin = 5.49501
vernier = 0.00390625
vernier = 0.00195313
vernier = 0.000976563
vernier = 0.000488281
Gmin = 5.50104
Gmin = 0
Gmin stepping failed

Starting source stepping with srcstepmethod=0
Source Step = 3.0303%
Source Step = 33.3333%
Source Step = 63.6364%
Source Step = 93.9394%
Source stepping succeeded in finding the operating point.


Date: Fri May 22 22:06:29 2020
Total elapsed time: 0.758 seconds.

tnom = 27
temp = 27
method = trap
totiter = 1957
traniter = 0
tranpoints = 0
accept = 0
rejected = 0
matrix size = 48
fillins = 75
solver = Normal
Matrix Compiler1:     370 opcodes
Matrix Compiler2: off  [0.5]/0.6/0.7

