Circuit: * F:\Documents\GitHub\Eurorack-Modular-Synth\Modules\VCO\Simulations\CV_in.asc

Number of points per decade reduced from 10000 to 7726.
WARNING: Less than two connections to node NC_01.  This node is used by V3.
WARNING: Less than two connections to node NC_02.  This node is used by R4.
WARNING: Less than two connections to node 3V3.  This node is used by V5.
WARNING: Less than two connections to node NC_03.  This node is used by V7.
Early termination of direct N-R iteration.
Direct Newton iteration failed to find .op point.  (Use ".option noopiter" to skip.)
Starting Gmin stepping
Increasing initial diagonal Gmin to 100
Gmin = 100
vernier = 0.5
vernier = 0.25
Gmin = 34.2672
vernier = 0.125
vernier = 0.0625
vernier = 0.03125
vernier = 0.015625
Gmin = 33.0995
vernier = 0.0078125
vernier = 0.00390625
vernier = 0.00195313
Gmin = 32.9705
vernier = 0.000976563
vernier = 0.000488281
Gmin = 0
Gmin stepping failed

Starting source stepping with srcstepmethod=0
Source Step = 3.0303%
Source Step = 33.3333%
Source Step = 63.6364%
Source Step = 93.9394%
Source stepping succeeded in finding the operating point.


Date: Fri Jun 26 19:38:08 2020
Total elapsed time: 1.360 seconds.

tnom = 27
temp = 27
method = trap
totiter = 1720
traniter = 0
tranpoints = 0
accept = 0
rejected = 0
matrix size = 107
fillins = 288
solver = Normal
Matrix Compiler1:    1156 opcodes
Matrix Compiler2: 13.72 KB object code size  1.3/1.3/[0.8]

