Circuit: * F:\Documents\GitHub\Eurorack-Modular-Synth\Modules\VCO\Simulations\CV_in.asc

WARNING: Less than two connections to node NC_01.  This node is used by VSWEEP1.
WARNING: Less than two connections to node NC_02.  This node is used by R4.
WARNING: Less than two connections to node 3V3.  This node is used by V5.
Direct Newton iteration failed to find .op point.  (Use ".option noopiter" to skip.)
Starting Gmin stepping
Increasing initial diagonal Gmin to 100
Gmin = 100
vernier = 0.5
vernier = 0.25
Gmin = 34.2672
vernier = 0.125
vernier = 0.0625
vernier = 0.03125
vernier = 0.015625
Gmin = 33.0995
vernier = 0.0078125
vernier = 0.00390625
vernier = 0.00195313
Gmin = 32.9705
vernier = 0.000976563
vernier = 0.000488281
Gmin = 0
Gmin stepping failed

Starting source stepping with srcstepmethod=0
Source Step = 3.0303%
Source Step = 33.3333%
Source Step = 63.6364%
Source Step = 93.9394%
Source stepping succeeded in finding the operating point.


Date: Fri Jun 12 21:44:07 2020
Total elapsed time: 0.295 seconds.

tnom = 27
temp = 27
method = modified trap
totiter = 2192
traniter = 416
tranpoints = 209
accept = 148
rejected = 61
matrix size = 59
fillins = 140
solver = Normal
Matrix Compiler1: 10.08 KB object code size  1.6/0.8/[0.6]
Matrix Compiler2: 7.13 KB object code size  0.6/0.8/[0.4]

