Circuit: * F:\Documents\GitHub\Eurorack-Modular-Synth\Modules\VCO\Simulations\DAC_output.asc

WARNING: Less than two connections to node NC_01.  This node is used by VSWEEP1.
Direct Newton iteration failed to find .op point.  (Use ".option noopiter" to skip.)
Starting Gmin stepping
Gmin = 10
Gmin = 1.07374
vernier = 0.5
vernier = 0.25
vernier = 0.125
vernier = 0.0625
Gmin = 1.13489
vernier = 0.03125
vernier = 0.015625
vernier = 0.0208333
Gmin = 1.09018
vernier = 0.0104167
vernier = 0.00520833
vernier = 0.00694444
Gmin = 1.07563
vernier = 0.00925925
vernier = 0.00462963
vernier = 0.00231481
Gmin = 1.06511
vernier = 0.00308642
vernier = 0.00411522
Gmin = 1.05726
vernier = 0.00548696
vernier = 0.00274348
vernier = 0.00137174
Gmin = 1.05112
vernier = 0.00182899
vernier = 0.00243865
Gmin = 1.04652
vernier = 0.00325153
vernier = 0.00162576
vernier = 0.000812882
Gmin = 1.04292
vernier = 0.00108384
vernier = 0.00144512
Gmin = 1.04021
vernier = 0.00192683
vernier = 0.000963415
vernier = 0.000481708
Gmin = 1.03808
vernier = 0.000642277
vernier = 0.000856369
Gmin = 1.03649
vernier = 0.00114182
Gmin = 1.0339
vernier = 0.00152243
vernier = 0.000761216
vernier = 0.000570912
vernier = 0.000761216
Gmin = 1.03267
vernier = 0.00101495
vernier = 0.000507477
Gmin = 0
Gmin stepping failed

Starting source stepping with srcstepmethod=0
Source Step = 3.0303%
Source Step = 33.3333%
Source Step = 63.6364%
Source Step = 93.9394%
Source stepping succeeded in finding the operating point.

N-Period=100
Fourier components of V(n002)
DC component:-0.00211937

Harmonic	Frequency	 Fourier 	Normalized	 Phase  	Normalized
 Number 	  [Hz]   	Component	 Component	[degree]	Phase [deg]
    1   	5.000e+03	2.487e+00	1.000e+00	  158.97°	    0.00°
    2   	1.000e+04	1.315e-02	5.289e-03	 -101.41°	 -260.38°
    3   	1.500e+04	1.369e-02	5.505e-03	 -114.75°	 -273.72°
    4   	2.000e+04	1.291e-02	5.189e-03	 -128.91°	 -287.88°
    5   	2.500e+04	1.138e-02	4.575e-03	 -140.29°	 -299.27°
    6   	3.000e+04	9.827e-03	3.951e-03	 -148.41°	 -307.38°
    7   	3.500e+04	8.514e-03	3.423e-03	 -154.09°	 -313.06°
    8   	4.000e+04	7.459e-03	2.999e-03	 -158.14°	 -317.11°
    9   	4.500e+04	6.617e-03	2.660e-03	 -161.12°	 -320.10°
   10   	5.000e+04	5.937e-03	2.387e-03	 -163.40°	 -322.37°
Total Harmonic Distortion: 1.245989%(3.424981%)



Date: Sun Jul 19 16:25:48 2020
Total elapsed time: 8.321 seconds.

tnom = 27
temp = 27
method = modified trap
totiter = 211775
traniter = 203024
tranpoints = 100535
accept = 100392
rejected = 143
matrix size = 155
fillins = 241
solver = Normal
Thread vector: 9.9/31.8[1] 3.3/2.1[3] 30.3/6.9[4] 0.6/12.2[1]  2592/500
Matrix Compiler1: 15.45 KB object code size  4.0/1.5/[0.9]
Matrix Compiler2: 15.01 KB object code size  2.9/3.4/[0.8]

