Circuit: * F:\Documents\GitHub\Eurorack-Modular-Synth\Modules\VCO\Simulations\DAC_output_vcom.asc

Number of points per decade reduced from 10000 to 7726.
WARNING: Less than two connections to node NC_01.  This node is used by V1.
Direct Newton iteration failed to find .op point.  (Use ".option noopiter" to skip.)
Starting Gmin stepping
Gmin = 10
Gmin = 1.07374
vernier = 0.5
vernier = 0.25
vernier = 0.125
vernier = 0.0625
Gmin = 1.13489
vernier = 0.03125
vernier = 0.015625
vernier = 0.0208333
Gmin = 1.09018
vernier = 0.0104167
vernier = 0.00520833
vernier = 0.00694444
Gmin = 1.07563
vernier = 0.00925925
vernier = 0.00462963
vernier = 0.00231481
Gmin = 1.06511
vernier = 0.00308642
vernier = 0.00411522
Gmin = 1.05726
vernier = 0.00548696
vernier = 0.00274348
vernier = 0.00137174
Gmin = 1.05112
vernier = 0.00182899
vernier = 0.00243865
Gmin = 1.04652
vernier = 0.00325153
vernier = 0.00162576
vernier = 0.000812882
Gmin = 1.04292
vernier = 0.00108384
vernier = 0.00144512
Gmin = 1.04021
vernier = 0.00192683
vernier = 0.000963415
vernier = 0.000481708
Gmin = 1.03808
vernier = 0.000642277
vernier = 0.000856369
Gmin = 1.03649
vernier = 0.00114182
Gmin = 1.0339
vernier = 0.00152243
vernier = 0.000761216
vernier = 0.000570912
vernier = 0.000761216
Gmin = 1.03267
vernier = 0.00101495
vernier = 0.000507477
Gmin = 0
Gmin stepping failed

Starting source stepping with srcstepmethod=0
Source Step = 3.0303%
Source Step = 33.3333%
Source Step = 63.6364%
Source Step = 93.9394%
Source stepping succeeded in finding the operating point.

Note: .fourier statements are only valid with a .tran command.
      No Fourier analysis performed.


Date: Fri Jun 12 21:58:54 2020
Total elapsed time: 2.011 seconds.

tnom = 27
temp = 27
method = trap
totiter = 8852
traniter = 0
tranpoints = 0
accept = 0
rejected = 0
matrix size = 156
fillins = 227
solver = Normal
Matrix Compiler1:     880 opcodes
Matrix Compiler2: off  [1.4]/2.5/1.9

