Circuit: * F:\Documents\GitHub\Eurorack-Modular-Synth\Modules\VCO\Simulations\DAC_output.asc

WARNING: Less than two connections to node NC_01.  This node is used by VSWEEP1.
Direct Newton iteration failed to find .op point.  (Use ".option noopiter" to skip.)
Starting Gmin stepping
Gmin = 10
Gmin = 1.07374
vernier = 0.5
vernier = 0.25
vernier = 0.125
vernier = 0.0625
Gmin = 1.13489
vernier = 0.03125
vernier = 0.015625
vernier = 0.0208333
Gmin = 1.09018
vernier = 0.0104167
vernier = 0.00520833
vernier = 0.00694444
Gmin = 1.07563
vernier = 0.00925925
vernier = 0.00462963
vernier = 0.00231481
Gmin = 1.06511
vernier = 0.00308642
vernier = 0.00411522
Gmin = 1.05726
vernier = 0.00548696
vernier = 0.00274348
vernier = 0.00137174
Gmin = 1.05112
vernier = 0.00182899
vernier = 0.00243865
Gmin = 1.04652
vernier = 0.00325153
vernier = 0.00162576
vernier = 0.000812882
Gmin = 1.04292
vernier = 0.00108384
vernier = 0.00144512
Gmin = 1.04021
vernier = 0.00192683
vernier = 0.000963415
vernier = 0.000481708
Gmin = 1.03808
vernier = 0.000642277
vernier = 0.000856369
Gmin = 1.03649
vernier = 0.00114182
Gmin = 1.0339
vernier = 0.00152243
vernier = 0.000761216
vernier = 0.000570912
vernier = 0.000761216
Gmin = 1.03267
vernier = 0.00101495
vernier = 0.000507477
Gmin = 0
Gmin stepping failed

Starting source stepping with srcstepmethod=0
Source Step = 3.0303%
Source Step = 33.3333%
Source Step = 63.6364%
Source Step = 93.9394%
Source stepping succeeded in finding the operating point.

N-Period=100
Fourier components of V(n002)
DC component:-0.0020226

Harmonic	Frequency	 Fourier 	Normalized	 Phase  	Normalized
 Number 	  [Hz]   	Component	 Component	[degree]	Phase [deg]
    1   	5.000e+03	2.491e+00	1.000e+00	  158.93°	    0.00°
    2   	1.000e+04	1.318e-02	5.290e-03	 -100.46°	 -259.40°
    3   	1.500e+04	1.383e-02	5.553e-03	 -114.13°	 -273.07°
    4   	2.000e+04	1.306e-02	5.241e-03	 -128.70°	 -287.64°
    5   	2.500e+04	1.149e-02	4.611e-03	 -140.31°	 -299.24°
    6   	3.000e+04	9.896e-03	3.973e-03	 -148.50°	 -307.43°
    7   	3.500e+04	8.561e-03	3.437e-03	 -154.19°	 -313.12°
    8   	4.000e+04	7.494e-03	3.009e-03	 -158.23°	 -317.16°
    9   	4.500e+04	6.644e-03	2.667e-03	 -161.21°	 -320.14°
   10   	5.000e+04	5.959e-03	2.393e-03	 -163.47°	 -322.40°
Total Harmonic Distortion: 1.253172%(3.433772%)



Date: Wed Jun 10 17:24:01 2020
Total elapsed time: 8.621 seconds.

tnom = 27
temp = 27
method = modified trap
totiter = 211601
traniter = 202850
tranpoints = 100495
accept = 100363
rejected = 132
matrix size = 155
fillins = 241
solver = Normal
Thread vector: 17.6/6.9[4] 3.3/2.1[4] 0.7/2.1[1] 0.8/7.3[1]  2592/500
Matrix Compiler1: 15.45 KB object code size  4.7/2.0/[1.1]
Matrix Compiler2: 15.01 KB object code size  2.6/4.1/[1.3]

