Circuit: * F:\Documents\GitHub\Eurorack-Modular-Synth\Modules\VCO\Simulations\DAC_output.asc

WARNING: Less than two connections to node NC_01.  This node is used by VSWEEP.
Direct Newton iteration failed to find .op point.  (Use ".option noopiter" to skip.)
Starting Gmin stepping
Gmin = 10
vernier = 0.5
Gmin = 1.86414
vernier = 0.25
vernier = 0.333333
vernier = 0.166667
Gmin = 1.37244
vernier = 0.0833333
vernier = 0.111111
vernier = 0.0555555
Gmin = 1.25449
vernier = 0.0277778
vernier = 0.037037
Gmin = 1.18419
vernier = 0.0185185
vernier = 0.00925925
vernier = 0.00462963
Gmin = 1.18142
vernier = 0.00617283
vernier = 0.00823044
Gmin = 1.16409
vernier = 0.0109739
Gmin = 1.13651
vernier = 0.00548696
vernier = 0.00274348
Gmin = 1.13107
vernier = 0.00137174
vernier = 0.00068587
vernier = 0.000514403
Gmin = 1.12937
Gmin = 0
Gmin stepping failed

Starting source stepping with srcstepmethod=0
Source Step = 3.0303%
Source Step = 33.3333%
Source Step = 63.6364%
Source Step = 93.9394%
Source stepping succeeded in finding the operating point.

N-Period=100
Fourier components of V(n002)
DC component:-0.000712217

Harmonic	Frequency	 Fourier 	Normalized	 Phase  	Normalized
 Number 	  [Hz]   	Component	 Component	[degree]	Phase [deg]
    1   	5.000e+03	9.919e+00	1.000e+00	  171.03°	    0.00°
    2   	1.000e+04	1.473e-03	1.485e-04	 -107.38°	 -278.41°
    3   	1.500e+04	1.397e-03	1.408e-04	 -115.15°	 -286.18°
    4   	2.000e+04	1.309e-03	1.319e-04	 -122.06°	 -293.09°
    5   	2.500e+04	1.216e-03	1.226e-04	 -128.05°	 -299.08°
    6   	3.000e+04	1.125e-03	1.135e-04	 -133.22°	 -304.24°
    7   	3.500e+04	1.041e-03	1.049e-04	 -137.63°	 -308.66°
    8   	4.000e+04	9.634e-04	9.713e-05	 -141.40°	 -312.43°
    9   	4.500e+04	8.937e-04	9.010e-05	 -144.64°	 -315.66°
   10   	5.000e+04	8.312e-04	8.379e-05	 -147.44°	 -318.46°
Total Harmonic Distortion: 0.035039%(0.348154%)



Date: Fri May 22 22:02:25 2020
Total elapsed time: 2.001 seconds.

tnom = 27
temp = 27
method = modified trap
totiter = 204447
traniter = 200036
tranpoints = 100019
accept = 100019
rejected = 0
matrix size = 32
fillins = 71
solver = Normal
Matrix Compiler1:     222 opcodes  0.7/[0.3]/2.1
Matrix Compiler2: off  [0.3]/0.4/0.3

