Circuit: * F:\Documents\GitHub\Eurorack-Modular-Synth\Modules\VCO\Simulations\FM_in.asc

WARNING: Less than two connections to node NC_01.  This node is used by VSWEEP1.
WARNING: Less than two connections to node NC_02.  This node is used by R4.
WARNING: Less than two connections to node NC_03.  This node is used by R7.
Direct Newton iteration failed to find .op point.  (Use ".option noopiter" to skip.)
Starting Gmin stepping
Increasing initial diagonal Gmin to 100
Gmin = 100
vernier = 0.5
vernier = 0.25
Gmin = 34.2672
vernier = 0.125
vernier = 0.0625
vernier = 0.03125
vernier = 0.015625
Gmin = 33.0995
vernier = 0.0078125
vernier = 0.00390625
vernier = 0.00195313
Gmin = 32.9705
vernier = 0.000976563
vernier = 0.000488281
Gmin = 0
Gmin stepping failed

Starting source stepping with srcstepmethod=0
Source Step = 3.0303%
Source Step = 33.3333%
Source Step = 63.6364%
Source Step = 93.9394%
Source stepping succeeded in finding the operating point.


Date: Fri Jun 12 01:12:22 2020
Total elapsed time: 0.127 seconds.

tnom = 27
temp = 27
method = modified trap
totiter = 2193
traniter = 416
tranpoints = 209
accept = 148
rejected = 61
matrix size = 60
fillins = 221
solver = Normal
Matrix Compiler1: 18.92 KB object code size  2.4/1.3/[0.7]
Matrix Compiler2: 8.68 KB object code size  0.6/1.0/[0.4]

